ID CAPS generated Problem FOR TACS
SOL 1
CEND

LINE=10000
DISP (PRINT,PUNCH) = ALL
STRE (PRINT,PUNCH) = ALL
STRA (PRINT,PUNCH) = ALL
SUBCASE 1
	LABEL = Default
	ANALYSIS = STATICS
	SPC = 2

BEGIN BULK
$---1---|---2---|---3---|---4---|---5---|---6---|---7---|---8---|---9---|---10--|
PARAM, POST, -1

SPCADD*               2               1 
SPC1*                 1          123456             777 
SPC1*                 1          123456             778 
SPC1*                 1          123456             779 
SPC1*                 1          123456             780 
SPC1*                 1          123456             781 
SPC1*                 1          123456             782 
SPC1*                 1          123456             783 
SPC1*                 1          123456             784 
SPC1*                 1          123456             785 
SPC1*                 1          123456             786 
SPC1*                 1          123456             787 
SPC1*                 1          123456             788 
SPC1*                 1          123456             789 
SPC1*                 1          123456             790 
SPC1*                 1          123456             791 
SPC1*                 1          123456             792 
SPC1*                 1          123456             793 
SPC1*                 1          123456             794 
SPC1*                 1          123456             795 
SPC1*                 1          123456             796 
$ ... 51 like lines cut
MAT1*                 1     6900000000.                            0.33 *0      
*0                2710.                                                 *1      
*1           276000000.      276000000.              0. 
PSHELL*               2               1           5.E-4               1 *0      
*0                   1.               1 0.8333333333333 
PSHELL*               3               1           5.E-4               1 *0      
*0                   1.               1 0.8333333333333 
PSHELL*               1               1           1.E-3               1 *0      
*0                   1.               1 0.8333333333333 

INCLUDE 'nastran_CAPS.bdf'

ENDDATA
